Version 4.1
SHEET 1 1164 932
WIRE -256 -240 -368 -240
WIRE -64 -240 -176 -240
WIRE 336 -240 -64 -240
WIRE 688 -240 336 -240
WIRE -368 -64 -368 -240
WIRE -256 -64 -368 -64
WIRE -96 -64 -176 -64
WIRE -64 -32 -64 -240
WIRE -16 -32 -64 -32
WIRE -96 -16 -96 -64
WIRE -16 -16 -96 -16
WIRE -16 0 -80 0
WIRE 240 0 112 0
WIRE -368 16 -368 -64
WIRE -304 16 -368 16
WIRE -16 16 -224 16
WIRE 336 128 336 -240
WIRE 368 128 336 128
WIRE 240 144 240 0
WIRE 368 144 240 144
WIRE 368 160 320 160
WIRE 592 160 496 160
WIRE -368 176 -368 16
WIRE -256 176 -368 176
WIRE -96 176 -176 176
WIRE 368 176 256 176
WIRE -64 192 -64 -32
WIRE -16 192 -64 192
WIRE -96 208 -96 176
WIRE -16 208 -96 208
WIRE -80 224 -80 0
WIRE -16 224 -80 224
WIRE 256 224 256 176
WIRE 256 224 112 224
WIRE -16 240 -160 240
WIRE 688 240 688 -240
WIRE 736 240 688 240
WIRE -368 256 -368 176
WIRE -304 256 -368 256
WIRE -160 256 -160 240
WIRE -160 256 -224 256
WIRE 592 256 592 160
WIRE 736 256 592 256
WIRE 736 272 688 272
WIRE 960 272 864 272
WIRE 736 288 608 288
WIRE -368 400 -368 256
WIRE -256 400 -368 400
WIRE -112 400 -176 400
WIRE 336 400 336 128
WIRE 368 400 336 400
WIRE -64 416 -64 192
WIRE -16 416 -64 416
WIRE 368 416 240 416
WIRE 688 416 688 272
WIRE -112 432 -112 400
WIRE -16 432 -112 432
WIRE 320 432 320 160
WIRE 368 432 320 432
WIRE 608 432 608 288
WIRE 608 432 496 432
WIRE -80 448 -80 224
WIRE -80 448 -112 448
WIRE -16 448 -80 448
WIRE 240 448 240 416
WIRE 240 448 112 448
WIRE 368 448 272 448
WIRE -16 464 -160 464
WIRE -368 480 -368 400
WIRE -304 480 -368 480
WIRE -160 480 -160 464
WIRE -160 480 -224 480
WIRE 272 480 272 448
WIRE 272 480 208 480
WIRE 320 576 320 432
WIRE -368 640 -368 480
WIRE -256 640 -368 640
WIRE -128 640 -176 640
WIRE -64 656 -64 416
WIRE -16 656 -64 656
WIRE -128 672 -128 640
WIRE -16 672 -128 672
WIRE -112 688 -112 448
WIRE -16 688 -112 688
WIRE 208 688 208 480
WIRE 208 688 112 688
WIRE -16 704 -176 704
WIRE -368 720 -368 640
WIRE -304 720 -368 720
WIRE -176 720 -176 704
WIRE -176 720 -224 720
WIRE -368 832 -368 720
WIRE -112 832 -112 688
FLAG -368 832 0
FLAG -112 912 0
FLAG 320 656 0
FLAG 688 496 0
SYMBOL Mux2to1 48 0 R0
SYMATTR InstName X1
SYMBOL Mux2to1 48 224 R0
SYMATTR InstName X2
SYMBOL Mux2to1 48 448 R0
SYMATTR InstName X3
SYMBOL Mux2to1 48 688 R0
SYMATTR InstName X4
SYMBOL Mux2to1 432 160 R0
SYMATTR InstName X5
SYMBOL Mux2to1 432 432 R0
SYMATTR InstName X6
SYMBOL Mux2to1 800 272 R0
SYMATTR InstName X7
SYMBOL voltage -160 -64 R90
WINDOW 0 -32 56 VBottom 2
WINDOW 3 32 56 VTop 2
WINDOW 123 0 0 Left 0
WINDOW 39 0 0 Left 0
SYMATTR InstName I0
SYMATTR Value 0
SYMBOL voltage -208 16 R90
WINDOW 0 -32 56 VBottom 2
WINDOW 3 32 56 VTop 2
WINDOW 123 0 0 Left 0
WINDOW 39 0 0 Left 0
SYMATTR InstName I1
SYMATTR Value 0
SYMBOL voltage -160 176 R90
WINDOW 0 -32 56 VBottom 2
WINDOW 3 32 56 VTop 2
WINDOW 123 0 0 Left 0
WINDOW 39 0 0 Left 0
SYMATTR InstName I2
SYMATTR Value 0
SYMBOL voltage -208 256 R90
WINDOW 0 -32 56 VBottom 2
WINDOW 3 32 56 VTop 2
WINDOW 123 0 0 Left 0
WINDOW 39 0 0 Left 0
SYMATTR InstName I3
SYMATTR Value 5
SYMBOL voltage -160 400 R90
WINDOW 0 -32 56 VBottom 2
WINDOW 3 32 56 VTop 2
WINDOW 123 0 0 Left 0
WINDOW 39 0 0 Left 0
SYMATTR InstName I4
SYMATTR Value 0
SYMBOL voltage -208 480 R90
WINDOW 0 -32 56 VBottom 2
WINDOW 3 32 56 VTop 2
WINDOW 123 0 0 Left 0
WINDOW 39 0 0 Left 0
SYMATTR InstName I5
SYMATTR Value 5
SYMBOL voltage -160 640 R90
WINDOW 0 -32 56 VBottom 2
WINDOW 3 32 56 VTop 2
WINDOW 123 0 0 Left 0
WINDOW 39 0 0 Left 0
SYMATTR InstName I6
SYMATTR Value 5
SYMBOL voltage -208 720 R90
WINDOW 0 -32 56 VBottom 2
WINDOW 3 32 56 VTop 2
WINDOW 123 0 0 Left 0
WINDOW 39 0 0 Left 0
SYMATTR InstName I7
SYMATTR Value 5
SYMBOL voltage -112 816 R0
WINDOW 123 0 0 Left 0
WINDOW 39 0 0 Left 0
SYMATTR InstName A1
SYMATTR Value PULSE(0 5 0 0.1n 0.1n 0.5m 1m)
SYMBOL voltage 320 560 R0
WINDOW 123 0 0 Left 0
WINDOW 39 0 0 Left 0
SYMATTR InstName A2
SYMATTR Value PULSE(0 5 0 0.1n 0.1n 1m 2m)
SYMBOL voltage 688 400 R0
WINDOW 123 0 0 Left 0
WINDOW 39 0 0 Left 0
SYMATTR InstName A3
SYMATTR Value PULSE(0 5 0 0.1n 0.1n 2m 4m)
SYMBOL voltage -160 -240 R90
WINDOW 0 -32 56 VBottom 2
WINDOW 3 32 56 VTop 2
WINDOW 123 0 0 Left 0
WINDOW 39 0 0 Left 0
SYMATTR InstName Vdd
SYMATTR Value 5
TEXT 912 656 Left 2 !.tran 0 8m startup
TEXT 904 728 Left 2 !.options method=gear
